Version 4
SHEET 1 880 1536
WIRE -336 -160 -352 -160
WIRE -224 -160 -256 -160
WIRE -192 -160 -224 -160
WIRE -80 -160 -112 -160
WIRE 160 -160 0 -160
WIRE 432 -160 224 -160
WIRE 528 -160 432 -160
WIRE 432 -144 432 -160
WIRE -352 -80 -352 -160
WIRE 128 -80 -352 -80
WIRE 432 -80 128 -80
WIRE 432 -16 432 -80
WIRE 432 -16 0 -16
WIRE 528 0 528 -160
WIRE 0 80 0 -16
WIRE 64 80 0 80
WIRE 528 80 528 0
WIRE 528 80 352 80
WIRE 0 176 -256 176
WIRE 64 176 0 176
WIRE 96 176 64 176
WIRE 368 176 352 176
WIRE 464 176 448 176
WIRE 512 176 464 176
WIRE 560 176 512 176
WIRE 608 176 560 176
WIRE 608 192 608 176
WIRE 512 208 512 176
WIRE -256 224 -256 176
WIRE 64 272 -64 272
WIRE 464 272 464 176
WIRE 464 272 352 272
WIRE 512 304 512 272
WIRE 608 304 608 272
WIRE -64 352 -64 272
WIRE 0 368 0 176
WIRE 64 368 0 368
WIRE 208 384 208 368
WIRE 64 464 0 464
WIRE 432 464 352 464
WIRE 352 480 352 464
WIRE 0 496 0 464
WIRE 432 496 432 464
WIRE -256 512 -256 288
WIRE 208 528 208 512
FLAG 512 304 0
FLAG 608 304 0
FLAG 208 528 0
FLAG 0 496 0
FLAG 560 176 VLoad
FLAG 528 0 VPiezo
FLAG -224 -160 VAccel
FLAG -256 512 0
FLAG -64 352 0
FLAG 432 496 0
FLAG 128 -80 Local_gnd_Piezo
SYMBOL PowerProducts\\LTC3588-1 208 272 R0
SYMATTR InstName U1
SYMBOL ind 352 192 R270
WINDOW 0 32 56 VTop 0
WINDOW 3 5 56 VBottom 0
SYMATTR InstName L1
SYMATTR Value 10e-6
SYMBOL cap 496 208 R0
SYMATTR InstName C1
SYMATTR Value 10e-6
SYMATTR SpiceLine V=6.3V
SYMBOL res 592 176 R0
SYMATTR InstName Rload1
SYMATTR Value 100e3
SYMBOL ind -96 -176 R90
WINDOW 0 5 56 VBottom 2
WINDOW 3 199 56 Right 2
SYMATTR InstName Lm1
SYMATTR Value 1.139783688713643e+05
SYMATTR SpiceLine Rser=0
SYMBOL res 16 -176 R90
WINDOW 0 0 56 VBottom 2
WINDOW 3 47 70 Bottom 2
SYMATTR InstName Rm1
SYMATTR Value 1.025296830482535e+05
SYMBOL cap -272 224 R0
SYMATTR InstName C2
SYMATTR Value 10e-6
SYMBOL cap 416 -144 R0
SYMATTR InstName C3
SYMATTR Value 22e-9
SYMBOL Misc\\signal -240 -160 R90
WINDOW 0 -32 56 VBottom 2
WINDOW 3 46 70 Bottom 2
WINDOW 123 0 0 Left 0
WINDOW 39 0 0 Left 0
SYMATTR InstName V1
SYMATTR Value SINE(0 2 12)
SYMBOL cap 224 -176 R90
WINDOW 0 0 32 VBottom 2
WINDOW 3 32 32 VTop 2
SYMATTR InstName Cm1
SYMATTR Value 3.01e-9
TEXT 624 -144 Left 0 !.tran 0 400 200 7 startup
TEXT -320 560 Left 0 ;Notes:\n  If the simulation model is not found please update with the "Sync Release" command from the "Tools" menu.\n  It remains the customer's responsibility to verify proper and reliable operation in the actual application.\n  Component substitution and printed circuit board layout may significantly affect circuit performance or reliability.\n  Contact your local sales representative for assistance. This circuit is distributed to customers only for use with LTC parts.\n  Copyright © 2010 Linear Technology Inc. All rights reserved.
